V1 0 SINE(2 5 10k)
R1 1 2 1k
R1 2 0 1k

.OP

*TRANSIENT ANALYSIS--Time domain analysis for .2 milliseconds
.TRAN 0.2m


.END
