* Voltage Divider (DC Sweep)
*===========================

V1 1 0 DC 0
R1 1 2 3.0k
R2 2 0 1.0k

.Dc V1 1 10 1

.End

* The circuit provides an attenutation 
* of 0.25.
