** Spice 8
*=-=-=-=-=-=- 

V1 1 0 AC
C1 2 3 10m
R1 3 0 11
L1 1 2 100m
.AC dec 10000000 1p 1T
.END
