* VOffset
*========

.include ./Lab_4_LMC6482.MOD
X1 1 2 4 5 3 LMC6482A/NS
Vps 4 0 15
Vns 0 5 15

V1 0 1 DC 5V
V2 0 2 DC 5V
.DC V1 4.5 5.5 0.01
.MEAS DC FIND V(2) WHEN V(3)=0
.End

*Results: V(3)=0 AT 5.005
*So the Offset voltage is 5.005-5=0.005V
