* VGain
=======

.include ./Lab_4_LMC6482.MOD
X1 1 2 4 5 3 LMC6482A/NS
Vps 4 0 15
Vns 0 5 15

V1 1 0 DC 0
V2 0 2 DC 0

.DC V1 -1 1 .001

.MEAS DC gain deriv(V(3)) WHEN V(1)=0

.End

*Result: Gain=30029
